version 2
1
9
.tran 1m 100m{return}.kicad adjustpaths{return}.save all{return}.probe alli
4
1
V(Net-_Q1-D_)
 
1
V(Net-_Q1-G_)
 
1
V(Net-_Q2-D_)
 
1
V(Net-_Q3-G_)
 
