version 2
2
0
{return}.kicad adjustpaths{return}.save all{return}.probe alli
0
9
.tran 100u 1{return}.kicad adjustpaths{return}.save all{return}.probe alli
0
