version 2
1
9
.options ITL4=100
.options reltol=0.003
.tran 10u 100m{return}.kicad adjustpaths{return}.save all{return}.probe alli
1
1
V(Net-_D4-K_)
 
