version 2
1
9
.tran 1m 30m{return}.kicad adjustpaths{return}.save all{return}.probe alli
2
1
V(Net-_Q1-D_)
 
1
V(Net-_Q2-D_)
 
